
**** 10/10/16 00:19:14 ******* PSpice Lite (March 2016) ******* ID# 10813 ****

 ** Profile: "SCHEMATIC1-CurrentImpulse"  [ D:\Cadence\SPB_17.2\tools\bin\AV-PSpiceFiles\SCHEMATIC1\CurrentImpulse.sim ] 


 ****     CIRCUIT DESCRIPTION


******************************************************************************




** Creating circuit file "CurrentImpulse.cir" 
** WARNING: THIS AUTOMATICALLY GENERATED FILE MAY BE OVERWRITTEN BY SUBSEQUENT SIMULATIONS

*Libraries: 
* Profile Libraries :
* Local Libraries :
* From [PSPICE NETLIST] section of C:\Users\Raymond Lei\cdssetup\OrCAD_PSpice\17.2.0\PSpice.ini file:
.lib "nomd.lib" 

*Analysis directives: 
.TRAN  0 0.05 0 
.OPTIONS ADVCONV
.PROBE64 V(alias(*)) I(alias(*)) W(alias(*)) D(alias(*)) NOISE(alias(*)) 
.INC "..\SCHEMATIC1.net" 



**** INCLUDING SCHEMATIC1.net ****
* source AV
I_I1         0 N00171 DC 0Adc AC 0Aac
+PULSE 0 10 0 1p 1p 1 2
I_I2         N00171 0 DC 0Adc AC 0Aac
+PULSE 0 10 0.01 1p 1p 1 2
R_R1         N00171 0  1k TC=0,0 

**** RESUMING CurrentImpulse.cir ****
.END

**** 10/10/16 00:19:14 ******* PSpice Lite (March 2016) ******* ID# 10813 ****

 ** Profile: "SCHEMATIC1-CurrentImpulse"  [ D:\Cadence\SPB_17.2\tools\bin\AV-PSpiceFiles\SCHEMATIC1\CurrentImpulse.sim ] 


 ****     INITIAL TRANSIENT SOLUTION       TEMPERATURE =   27.000 DEG C


******************************************************************************



 NODE   VOLTAGE     NODE   VOLTAGE     NODE   VOLTAGE     NODE   VOLTAGE


(N00171)    0.0000 




    VOLTAGE SOURCE CURRENTS
    NAME         CURRENT


    TOTAL POWER DISSIPATION   0.00E+00  WATTS



          JOB CONCLUDED

**** 10/10/16 00:19:14 ******* PSpice Lite (March 2016) ******* ID# 10813 ****

 ** Profile: "SCHEMATIC1-CurrentImpulse"  [ D:\Cadence\SPB_17.2\tools\bin\AV-PSpiceFiles\SCHEMATIC1\CurrentImpulse.sim ] 


 ****     JOB STATISTICS SUMMARY


******************************************************************************



  Total job time (using Solver 1)   =        0.00
