
**** 10/09/16 19:40:25 ******* PSpice Lite (March 2016) ******* ID# 10813 ****

 ** Profile: "SCHEMATIC1-Vlinear"  [ D:\Cadence\SPB_17.2\tools\bin\Vlinear-PSpiceFiles\SCHEMATIC1\Vlinear.sim ] 


 ****     CIRCUIT DESCRIPTION


******************************************************************************




** Creating circuit file "Vlinear.cir" 
** WARNING: THIS AUTOMATICALLY GENERATED FILE MAY BE OVERWRITTEN BY SUBSEQUENT SIMULATIONS

*Libraries: 
* Profile Libraries :
* Local Libraries :
* From [PSPICE NETLIST] section of C:\Users\Raymond Lei\cdssetup\OrCAD_PSpice\17.2.0\PSpice.ini file:
.lib "nomd.lib" 

*Analysis directives: 
.TRAN  0 0.05 0 
.OPTIONS ADVCONV
.PROBE64 V(alias(*)) I(alias(*)) W(alias(*)) D(alias(*)) NOISE(alias(*)) 
.INC "..\SCHEMATIC1.net" 



**** INCLUDING SCHEMATIC1.net ****
* source VLINEAR
V_V1         0 0  AC 0
+SIN 0 3 5 0 0 0

**** RESUMING Vlinear.cir ****
.END

WARNING(ORPSIM-15189): All terminals are grounded in this circuit
